<?xml version="1.0" encoding="UTF-8"?>
<net version="1.9" junctionCornerDetail="5" limitTurnSpeed="5.5" xmlns:xsi="http://www.w3.org/2001/XMLSchema-instance" xsi:noNamespaceSchemaLocation="http://sumo.dlr.de/xsd/net_file.xsd">
    <location netOffset="0.00,0.00" convBoundary="0.00,0.00,200.00,200.00" origBoundary="-10000000000.00,-10000000000.00,10000000000.00,10000000000.00" projParameter="!"/>
    
    <!-- Edges -->
    <edge id="north2center" from="north" to="center" priority="1">
        <lane id="north2center_0" index="0" speed="13.89" length="50.00" shape="100.00,150.00 100.00,100.00"/>
        <lane id="north2center_1" index="1" speed="13.89" length="50.00" shape="105.00,150.00 105.00,100.00"/>
        <lane id="north2center_2" index="2" speed="13.89" length="50.00" shape="110.00,150.00 110.00,100.00"/>
    </edge>
    
    <edge id="center2south" from="center" to="south" priority="1">
        <lane id="center2south_0" index="0" speed="13.89" length="50.00" shape="100.00,100.00 100.00,50.00"/>
        <lane id="center2south_1" index="1" speed="13.89" length="50.00" shape="105.00,100.00 105.00,50.00"/>
        <lane id="center2south_2" index="2" speed="13.89" length="50.00" shape="110.00,100.00 110.00,50.00"/>
    </edge>
    
    <edge id="east2center" from="east" to="center" priority="1">
        <lane id="east2center_0" index="0" speed="13.89" length="50.00" shape="150.00,100.00 100.00,100.00"/>
        <lane id="east2center_1" index="1" speed="13.89" length="50.00" shape="150.00,105.00 100.00,105.00"/>
        <lane id="east2center_2" index="2" speed="13.89" length="50.00" shape="150.00,110.00 100.00,110.00"/>
    </edge>
    
    <edge id="center2west" from="center" to="west" priority="1">
        <lane id="center2west_0" index="0" speed="13.89" length="50.00" shape="100.00,100.00 50.00,100.00"/>
        <lane id="center2west_1" index="1" speed="13.89" length="50.00" shape="100.00,105.00 50.00,105.00"/>
        <lane id="center2west_2" index="2" speed="13.89" length="50.00" shape="100.00,110.00 50.00,110.00"/>
    </edge>
    
    <edge id="south2center" from="south" to="center" priority="1">
        <lane id="south2center_0" index="0" speed="13.89" length="50.00" shape="100.00,50.00 100.00,100.00"/>
        <lane id="south2center_1" index="1" speed="13.89" length="50.00" shape="95.00,50.00 95.00,100.00"/>
        <lane id="south2center_2" index="2" speed="13.89" length="50.00" shape="90.00,50.00 90.00,100.00"/>
    </edge>
    
    <edge id="center2north" from="center" to="north" priority="1">
        <lane id="center2north_0" index="0" speed="13.89" length="50.00" shape="100.00,100.00 100.00,150.00"/>
        <lane id="center2north_1" index="1" speed="13.89" length="50.00" shape="95.00,100.00 95.00,150.00"/>
        <lane id="center2north_2" index="2" speed="13.89" length="50.00" shape="90.00,100.00 90.00,150.00"/>
    </edge>
    
    <edge id="west2center" from="west" to="center" priority="1">
        <lane id="west2center_0" index="0" speed="13.89" length="50.00" shape="50.00,100.00 100.00,100.00"/>
        <lane id="west2center_1" index="1" speed="13.89" length="50.00" shape="50.00,95.00 100.00,95.00"/>
        <lane id="west2center_2" index="2" speed="13.89" length="50.00" shape="50.00,90.00 100.00,90.00"/>
    </edge>
    
    <edge id="center2east" from="center" to="east" priority="1">
        <lane id="center2east_0" index="0" speed="13.89" length="50.00" shape="100.00,100.00 150.00,100.00"/>
        <lane id="center2east_1" index="1" speed="13.89" length="50.00" shape="100.00,95.00 150.00,95.00"/>
        <lane id="center2east_2" index="2" speed="13.89" length="50.00" shape="100.00,90.00 150.00,90.00"/>
    </edge>
    
    <!-- Junction with traffic light -->
    <junction id="center" type="traffic_light" x="100.00" y="100.00" incLanes="north2center_0 north2center_1 north2center_2 east2center_0 east2center_1 east2center_2 center2south_0 center2south_1 center2south_2 center2west_0 center2west_1 center2west_2 south2center_0 south2center_1 south2center_2 west2center_0 west2center_1 west2center_2 center2north_0 center2north_1 center2north_2 center2east_0 center2east_1 center2east_2" intLanes=":center_0_0 :center_0_1 :center_0_2 :center_1_0 :center_1_1 :center_1_2 :center_2_0 :center_2_1 :center_2_2 :center_3_0 :center_3_1 :center_3_2 :center_4_0 :center_4_1 :center_4_2 :center_5_0 :center_5_1 :center_5_2 :center_6_0 :center_6_1 :center_6_2 :center_7_0 :center_7_1 :center_7_2" shape="100.00,90.00 110.00,100.00 100.00,110.00 90.00,100.00">
        <request index="0" response="00" foes="00" cont="0"/>
        <request index="1" response="00" foes="00" cont="0"/>
        <request index="2" response="00" foes="00" cont="0"/>
        <request index="3" response="00" foes="00" cont="0"/>
        <request index="4" response="00" foes="00" cont="0"/>
        <request index="5" response="00" foes="00" cont="0"/>
        <request index="6" response="00" foes="00" cont="0"/>
        <request index="7" response="00" foes="00" cont="0"/>
        <request index="8" response="00" foes="00" cont="0"/>
        <request index="9" response="00" foes="00" cont="0"/>
        <request index="10" response="00" foes="00" cont="0"/>
        <request index="11" response="00" foes="00" cont="0"/>
        <request index="12" response="00" foes="00" cont="0"/>
        <request index="13" response="00" foes="00" cont="0"/>
        <request index="14" response="00" foes="00" cont="0"/>
        <request index="15" response="00" foes="00" cont="0"/>
        <request index="16" response="00" foes="00" cont="0"/>
        <request index="17" response="00" foes="00" cont="0"/>
        <request index="18" response="00" foes="00" cont="0"/>
        <request index="19" response="00" foes="00" cont="0"/>
        <request index="20" response="00" foes="00" cont="0"/>
        <request index="21" response="00" foes="00" cont="0"/>
        <request index="22" response="00" foes="00" cont="0"/>
        <request index="23" response="00" foes="00" cont="0"/>
    </junction>
    
    <!-- External junctions -->
    <junction id="north" type="priority" x="100.00" y="150.00" incLanes="" intLanes="" shape="100.00,150.00 100.00,150.00"/>
    <junction id="south" type="priority" x="100.00" y="50.00" incLanes="" intLanes="" shape="100.00,50.00 100.00,50.00"/>
    <junction id="east" type="priority" x="150.00" y="100.00" incLanes="" intLanes="" shape="150.00,100.00 150.00,100.00"/>
    <junction id="west" type="priority" x="50.00" y="100.00" incLanes="" intLanes="" shape="50.00,100.00 50.00,100.00"/>
    
    <!-- Connections -->
    <connection from="north2center" to="center2south" fromLane="0" toLane="0" dir="s" state="M"/>
    <connection from="north2center" to="center2east" fromLane="1" toLane="0" dir="r" state="M"/>
    <connection from="north2center" to="center2west" fromLane="2" toLane="0" dir="l" state="M"/>
    <connection from="east2center" to="center2west" fromLane="0" toLane="0" dir="s" state="M"/>
    <connection from="east2center" to="center2north" fromLane="1" toLane="0" dir="r" state="M"/>
    <connection from="east2center" to="center2south" fromLane="2" toLane="0" dir="l" state="M"/>
    <connection from="south2center" to="center2north" fromLane="0" toLane="0" dir="s" state="M"/>
    <connection from="south2center" to="center2east" fromLane="1" toLane="0" dir="r" state="M"/>
    <connection from="south2center" to="center2west" fromLane="2" toLane="0" dir="l" state="M"/>
    <connection from="west2center" to="center2east" fromLane="0" toLane="0" dir="s" state="M"/>
    <connection from="west2center" to="center2north" fromLane="1" toLane="0" dir="r" state="M"/>
    <connection from="west2center" to="center2south" fromLane="2" toLane="0" dir="l" state="M"/>
</net>