<?xml version="1.0" encoding="UTF-8"?>
<edges xmlns:xsi="http://www.w3.org/2001/XMLSchema-instance" xsi:noNamespaceSchemaLocation="http://sumo.dlr.de/xsd/edges_file.xsd">
    <edge id="north2center" from="north" to="center" priority="1" numLanes="3" speed="13.89"/>
    <edge id="center2south" from="center" to="south" priority="1" numLanes="3" speed="13.89"/>
    <edge id="east2center" from="east" to="center" priority="1" numLanes="3" speed="13.89"/>
    <edge id="center2west" from="center" to="west" priority="1" numLanes="3" speed="13.89"/>
    <edge id="south2center" from="south" to="center" priority="1" numLanes="3" speed="13.89"/>
    <edge id="center2north" from="center" to="north" priority="1" numLanes="3" speed="13.89"/>
    <edge id="west2center" from="west" to="center" priority="1" numLanes="3" speed="13.89"/>
    <edge id="center2east" from="center" to="east" priority="1" numLanes="3" speed="13.89"/>
</edges>