<?xml version="1.0" encoding="UTF-8"?>
<routes xmlns:xsi="http://www.w3.org/2001/XMLSchema-instance" xsi:noNamespaceSchemaLocation="http://sumo.dlr.de/xsd/routes_file.xsd">
    <vType id="car" accel="2.0" decel="4.5" sigma="0.5" length="4.3" width="1.8" maxSpeed="50" guiShape="passenger" guiColor="0,0,1" minGap="2.5" tau="1.0"/>
    <vType id="bus" accel="1.0" decel="4.0" sigma="0.5" length="12" width="2.5" maxSpeed="30" guiShape="bus" guiColor="1,0,0" minGap="3.0" tau="1.5"/>
    <vType id="truck" accel="0.8" decel="4.0" sigma="0.5" length="7.1" width="2.5" maxSpeed="25" guiShape="truck" guiColor="0.5,0.25,0" minGap="3.0" tau="1.5"/>
    
    <!-- Routes -->
    <route id="S_to_N" edges="south2center center2north"/>
    <route id="S_to_E" edges="south2center center2east"/>
    <route id="S_to_W" edges="south2center center2west"/>
    <route id="N_to_S" edges="north2center center2south"/>
    <route id="N_to_E" edges="north2center center2east"/>
    <route id="N_to_W" edges="north2center center2west"/>
    <route id="E_to_W" edges="east2center center2west"/>
    <route id="E_to_N" edges="east2center center2north"/>
    <route id="E_to_S" edges="east2center center2south"/>
    <route id="W_to_E" edges="west2center center2east"/>
    <route id="W_to_N" edges="west2center center2north"/>
    <route id="W_to_S" edges="west2center center2south"/>
    
    <!-- Realistic traffic flows -->
    <flow id="S_through" route="S_to_N" type="car" begin="0" end="300" period="3.0" departLane="1" departSpeed="8.0"/>
    <flow id="S_right" route="S_to_E" type="car" begin="0" end="300" period="4.0" departLane="2" departSpeed="6.0"/>
    <flow id="S_left" route="S_to_W" type="car" begin="0" end="300" period="5.0" departLane="0" departSpeed="5.0"/>
    
    <flow id="N_through" route="N_to_S" type="car" begin="0" end="300" period="3.2" departLane="1" departSpeed="8.0"/>
    <flow id="N_right" route="N_to_W" type="car" begin="0" end="300" period="4.2" departLane="2" departSpeed="6.0"/>
    <flow id="N_left" route="N_to_E" type="car" begin="0" end="300" period="5.2" departLane="0" departSpeed="5.0"/>
    
    <flow id="E_through" route="E_to_W" type="car" begin="0" end="300" period="2.8" departLane="1" departSpeed="8.0"/>
    <flow id="E_right" route="E_to_N" type="car" begin="0" end="300" period="3.8" departLane="2" departSpeed="6.0"/>
    <flow id="E_left" route="E_to_S" type="car" begin="0" end="300" period="4.8" departLane="0" departSpeed="5.0"/>
    
    <flow id="W_through" route="W_to_E" type="car" begin="0" end="300" period="3.1" departLane="1" departSpeed="8.0"/>
    <flow id="W_right" route="W_to_S" type="car" begin="0" end="300" period="4.1" departLane="2" departSpeed="6.0"/>
    <flow id="W_left" route="W_to_N" type="car" begin="0" end="300" period="5.1" departLane="0" departSpeed="5.0"/>
    
    <!-- Add buses and trucks for realism -->
    <flow id="S_bus" route="S_to_N" type="bus" begin="0" end="300" period="25.0" departLane="1" departSpeed="6.0"/>
    <flow id="N_truck" route="N_to_S" type="truck" begin="0" end="300" period="20.0" departLane="1" departSpeed="5.0"/>
    <flow id="E_bus" route="E_to_W" type="bus" begin="0" end="300" period="30.0" departLane="1" departSpeed="6.0"/>
    <flow id="W_truck" route="W_to_E" type="truck" begin="0" end="300" period="22.0" departLane="1" departSpeed="5.0"/>
</routes>