<?xml version="1.0" encoding="UTF-8"?>
<routes xmlns:xsi="http://www.w3.org/2001/XMLSchema-instance" xsi:noNamespaceSchemaLocation="http://sumo.dlr.de/xsd/routes_file.xsd">
    <vType id="car" accel="3.0" decel="5.0" sigma="0.3" length="4.5" maxSpeed="60" minGap="1.5" tau="1.0"/>
    <vehicle id="veh0" type="car" route="E1 W1" depart="0"/>
    <vehicle id="veh1" type="car" route="W1 E1" depart="2"/>
    <vehicle id="veh2" type="car" route="N1 S1" depart="4"/>
    <vehicle id="veh3" type="car" route="S1 N1" depart="6"/>
    <vehicle id="veh4" type="car" route="E1 W1" depart="8"/>
    <vehicle id="veh5" type="car" route="W1 E1" depart="10"/>
    <vehicle id="veh6" type="car" route="N1 S1" depart="12"/>
    <vehicle id="veh7" type="car" route="S1 N1" depart="14"/>
    <vehicle id="veh8" type="car" route="E1 W1" depart="16"/>
    <vehicle id="veh9" type="car" route="W1 E1" depart="18"/>
</routes>