<?xml version="1.0" encoding="UTF-8"?>
<routes xmlns:xsi="http://www.w3.org/2001/XMLSchema-instance" xsi:noNamespaceSchemaLocation="http://sumo.dlr.de/xsd/routes_file.xsd">
    <vType id="car" accel="2.6" decel="4.5" sigma="0.5" length="4.3" maxSpeed="13.89" />
    
    <route id="north_to_south" edges="north2center center2south" />
    <route id="south_to_north" edges="center2south north2center" />
    <route id="east_to_west" edges="east2center center2west" />
    <route id="west_to_east" edges="center2west east2center" />
    
    <!-- Generate vehicles based on real traffic video analysis -->
    <vehicle id="veh0" type="car" route="north_to_south" depart="0" />
    <vehicle id="veh1" type="car" route="south_to_north" depart="2" />
    <vehicle id="veh2" type="car" route="east_to_west" depart="4" />
    <vehicle id="veh3" type="car" route="west_to_east" depart="6" />
    <vehicle id="veh4" type="car" route="north_to_south" depart="8" />
    <vehicle id="veh5" type="car" route="south_to_north" depart="10" />
    <vehicle id="veh6" type="car" route="east_to_west" depart="12" />
    <vehicle id="veh7" type="car" route="west_to_east" depart="14" />
    <vehicle id="veh8" type="car" route="north_to_south" depart="16" />
    <vehicle id="veh9" type="car" route="south_to_north" depart="18" />
    <vehicle id="veh10" type="car" route="east_to_west" depart="20" />
    <vehicle id="veh11" type="car" route="west_to_east" depart="22" />
    <vehicle id="veh12" type="car" route="north_to_south" depart="24" />
    <vehicle id="veh13" type="car" route="south_to_north" depart="26" />
    <vehicle id="veh14" type="car" route="east_to_west" depart="28" />
    <vehicle id="veh15" type="car" route="west_to_east" depart="30" />
    <vehicle id="veh16" type="car" route="north_to_south" depart="32" />
    <vehicle id="veh17" type="car" route="south_to_north" depart="34" />
    <vehicle id="veh18" type="car" route="east_to_west" depart="36" />
    <vehicle id="veh19" type="car" route="west_to_east" depart="38" />
    <vehicle id="veh20" type="car" route="north_to_south" depart="40" />
    <vehicle id="veh21" type="car" route="south_to_north" depart="42" />
    <vehicle id="veh22" type="car" route="east_to_west" depart="44" />
    <vehicle id="veh23" type="car" route="west_to_east" depart="46" />
    <vehicle id="veh24" type="car" route="north_to_south" depart="48" />
    <vehicle id="veh25" type="car" route="south_to_north" depart="50" />
    <vehicle id="veh26" type="car" route="east_to_west" depart="52" />
    <vehicle id="veh27" type="car" route="west_to_east" depart="54" />
    <vehicle id="veh28" type="car" route="north_to_south" depart="56" />
    <vehicle id="veh29" type="car" route="south_to_north" depart="58" />
    <vehicle id="veh30" type="car" route="east_to_west" depart="60" />
    <vehicle id="veh31" type="car" route="west_to_east" depart="62" />
    <vehicle id="veh32" type="car" route="north_to_south" depart="64" />
    <vehicle id="veh33" type="car" route="south_to_north" depart="66" />
    <vehicle id="veh34" type="car" route="east_to_west" depart="68" />
    <vehicle id="veh35" type="car" route="west_to_east" depart="70" />
    <vehicle id="veh36" type="car" route="north_to_south" depart="72" />
    <vehicle id="veh37" type="car" route="south_to_north" depart="74" />
    <vehicle id="veh38" type="car" route="east_to_west" depart="76" />
    <vehicle id="veh39" type="car" route="west_to_east" depart="78" />
    <vehicle id="veh40" type="car" route="north_to_south" depart="80" />
    <vehicle id="veh41" type="car" route="south_to_north" depart="82" />
</routes>
