<?xml version="1.0" encoding="UTF-8"?>
<net version="1.9" xmlns:xsi="http://www.w3.org/2001/XMLSchema-instance" xsi:noNamespaceSchemaLocation="http://sumo.dlr.de/xsd/net_file.xsd">
    <location netOffset="0.00,0.00" convBoundary="0.00,0.00,200.00,200.00" origBoundary="-180.00,-90.00,180.00,90.00" projParameter="+proj=longlat +ellps=WGS84 +datum=WGS84 +no_defs"/>
    
    <!-- Nodes (Junctions) -->
    <junction id="center" type="traffic_light" x="100.0" y="100.0" incLanes="" intLanes="" shape="100.0,100.0"/>
    <junction id="north_end" type="priority" x="100.0" y="0.0" incLanes="" intLanes="" shape="100.0,0.0"/>
    <junction id="south_end" type="priority" x="100.0" y="200.0" incLanes="" intLanes="" shape="100.0,200.0"/>
    <junction id="east_end" type="priority" x="200.0" y="100.0" incLanes="" intLanes="" shape="200.0,100.0"/>
    <junction id="west_end" type="priority" x="0.0" y="100.0" incLanes="" intLanes="" shape="0.0,100.0"/>
    
    <!-- Edges (Roads) -->
    <edge id="north" from="north_end" to="center" priority="1">
        <lane id="north_0" index="0" speed="13.89" length="100.0" shape="100.0,0.0 100.0,100.0"/>
    </edge>
    <edge id="south" from="south_end" to="center" priority="1">
        <lane id="south_0" index="0" speed="13.89" length="100.0" shape="100.0,200.0 100.0,100.0"/>
    </edge>
    <edge id="east" from="east_end" to="center" priority="1">
        <lane id="east_0" index="0" speed="13.89" length="100.0" shape="200.0,100.0 100.0,100.0"/>
    </edge>
    <edge id="west" from="west_end" to="center" priority="1">
        <lane id="west_0" index="0" speed="13.89" length="100.0" shape="0.0,100.0 100.0,100.0"/>
    </edge>
    
    <!-- Traffic Light Logic -->
    <tlLogic id="center" type="static" programID="0" offset="0">
        <phase duration="31" state="GGrrrrGGrrrr"/>
        <phase duration="6" state="yyrrrryyrrrr"/>
        <phase duration="31" state="rrGGrrrrGGrr"/>
        <phase duration="6" state="rryyrrrryyrr"/>
        <phase duration="31" state="rrrrGGrrrrGG"/>
        <phase duration="6" state="rrrryyrrrryy"/>
        <phase duration="31" state="rrrrrrGGrrrr"/>
        <phase duration="6" state="rrrrrryyrrrr"/>
    </tlLogic>
</net>
