<?xml version="1.0" encoding="UTF-8"?>
<routes>
    <vType id="car" accel="2.6" decel="4.5" sigma="0.5" length="5" maxSpeed="50"/>
    <vType id="truck" accel="1.2" decel="3.5" sigma="0.3" length="12" maxSpeed="30"/>
    <vehicle id="veh_0" type="truck" depart="0" route="north-south"/>
    <vehicle id="veh_1" type="car" depart="2" route="south-north"/>
    <vehicle id="veh_2" type="car" depart="4" route="east-west"/>
    <vehicle id="veh_3" type="car" depart="6" route="west-east"/>
    <vehicle id="veh_4" type="truck" depart="8" route="north-south"/>
    <vehicle id="veh_5" type="car" depart="10" route="south-north"/>
    <vehicle id="veh_6" type="car" depart="12" route="east-west"/>
    <vehicle id="veh_7" type="car" depart="14" route="west-east"/>
    <vehicle id="veh_8" type="truck" depart="16" route="north-south"/>
    <vehicle id="veh_9" type="car" depart="18" route="south-north"/>
    <vehicle id="veh_10" type="car" depart="20" route="east-west"/>
    <vehicle id="veh_11" type="car" depart="22" route="west-east"/>
    <vehicle id="veh_12" type="truck" depart="24" route="north-south"/>
    <vehicle id="veh_13" type="car" depart="26" route="south-north"/>
    <vehicle id="veh_14" type="car" depart="28" route="east-west"/>
    <vehicle id="veh_15" type="car" depart="30" route="west-east"/>
    <vehicle id="veh_16" type="truck" depart="32" route="north-south"/>
    <vehicle id="veh_17" type="car" depart="34" route="south-north"/>
    <vehicle id="veh_18" type="car" depart="36" route="east-west"/>
    <vehicle id="veh_19" type="car" depart="38" route="west-east"/>
    <vehicle id="veh_20" type="truck" depart="40" route="north-south"/>
    <vehicle id="veh_21" type="car" depart="42" route="south-north"/>
    <vehicle id="veh_22" type="car" depart="44" route="east-west"/>
    <vehicle id="veh_23" type="car" depart="46" route="west-east"/>
    <vehicle id="veh_24" type="truck" depart="48" route="north-south"/>
    <vehicle id="veh_25" type="car" depart="50" route="south-north"/>
    <vehicle id="veh_26" type="car" depart="52" route="east-west"/>
    <vehicle id="veh_27" type="car" depart="54" route="west-east"/>
    <vehicle id="veh_28" type="truck" depart="56" route="north-south"/>
    <vehicle id="veh_29" type="car" depart="58" route="south-north"/>
    <vehicle id="veh_30" type="car" depart="60" route="east-west"/>
    <vehicle id="veh_31" type="car" depart="62" route="west-east"/>
    <vehicle id="veh_32" type="truck" depart="64" route="north-south"/>
    <vehicle id="veh_33" type="car" depart="66" route="south-north"/>
    <vehicle id="veh_34" type="car" depart="68" route="east-west"/>
    <vehicle id="veh_35" type="car" depart="70" route="west-east"/>
    <vehicle id="veh_36" type="truck" depart="72" route="north-south"/>
    <vehicle id="veh_37" type="car" depart="74" route="south-north"/>
    <vehicle id="veh_38" type="car" depart="76" route="east-west"/>
    <vehicle id="veh_39" type="car" depart="78" route="west-east"/>
    <vehicle id="veh_40" type="truck" depart="80" route="north-south"/>
    <vehicle id="veh_41" type="car" depart="82" route="south-north"/>
    <vehicle id="veh_42" type="car" depart="84" route="east-west"/>
    <vehicle id="veh_43" type="car" depart="86" route="west-east"/>
    <vehicle id="veh_44" type="truck" depart="88" route="north-south"/>
    <vehicle id="veh_45" type="car" depart="90" route="south-north"/>
    <vehicle id="veh_46" type="car" depart="92" route="east-west"/>
    <vehicle id="veh_47" type="car" depart="94" route="west-east"/>
    <vehicle id="veh_48" type="truck" depart="96" route="north-south"/>
    <vehicle id="veh_49" type="car" depart="98" route="south-north"/>
    <vehicle id="veh_50" type="car" depart="100" route="east-west"/>
    <vehicle id="veh_51" type="car" depart="102" route="west-east"/>
    <vehicle id="veh_52" type="truck" depart="104" route="north-south"/>
    <vehicle id="veh_53" type="car" depart="106" route="south-north"/>
    <vehicle id="veh_54" type="car" depart="108" route="east-west"/>
    <vehicle id="veh_55" type="car" depart="110" route="west-east"/>
    <vehicle id="veh_56" type="truck" depart="112" route="north-south"/>
    <vehicle id="veh_57" type="car" depart="114" route="south-north"/>
    <vehicle id="veh_58" type="car" depart="116" route="east-west"/>
    <vehicle id="veh_59" type="car" depart="118" route="west-east"/>
    <vehicle id="veh_60" type="truck" depart="120" route="north-south"/>
    <vehicle id="veh_61" type="car" depart="122" route="south-north"/>
    <vehicle id="veh_62" type="car" depart="124" route="east-west"/>
    <vehicle id="veh_63" type="car" depart="126" route="west-east"/>
    <vehicle id="veh_64" type="truck" depart="128" route="north-south"/>
    <vehicle id="veh_65" type="car" depart="130" route="south-north"/>
    <vehicle id="veh_66" type="car" depart="132" route="east-west"/>
    <vehicle id="veh_67" type="car" depart="134" route="west-east"/>
    <vehicle id="veh_68" type="truck" depart="136" route="north-south"/>
    <vehicle id="veh_69" type="car" depart="138" route="south-north"/>
    <vehicle id="veh_70" type="car" depart="140" route="east-west"/>
    <vehicle id="veh_71" type="car" depart="142" route="west-east"/>
    <vehicle id="veh_72" type="truck" depart="144" route="north-south"/>
    <vehicle id="veh_73" type="car" depart="146" route="south-north"/>
    <vehicle id="veh_74" type="car" depart="148" route="east-west"/>
    <vehicle id="veh_75" type="car" depart="150" route="west-east"/>
    <vehicle id="veh_76" type="truck" depart="152" route="north-south"/>
    <vehicle id="veh_77" type="car" depart="154" route="south-north"/>
    <vehicle id="veh_78" type="car" depart="156" route="east-west"/>
    <vehicle id="veh_79" type="car" depart="158" route="west-east"/>
    <vehicle id="veh_80" type="truck" depart="160" route="north-south"/>
    <vehicle id="veh_81" type="car" depart="162" route="south-north"/>
    <vehicle id="veh_82" type="car" depart="164" route="east-west"/>
    <vehicle id="veh_83" type="car" depart="166" route="west-east"/>
    <vehicle id="veh_84" type="truck" depart="168" route="north-south"/>
    <vehicle id="veh_85" type="car" depart="170" route="south-north"/>
    <vehicle id="veh_86" type="car" depart="172" route="east-west"/>
    <vehicle id="veh_87" type="car" depart="174" route="west-east"/>
    <vehicle id="veh_88" type="truck" depart="176" route="north-south"/>
    <vehicle id="veh_89" type="car" depart="178" route="south-north"/>
    <vehicle id="veh_90" type="car" depart="180" route="east-west"/>
    <vehicle id="veh_91" type="car" depart="182" route="west-east"/>
    <vehicle id="veh_92" type="truck" depart="184" route="north-south"/>
    <vehicle id="veh_93" type="car" depart="186" route="south-north"/>
    <vehicle id="veh_94" type="car" depart="188" route="east-west"/>
    <vehicle id="veh_95" type="car" depart="190" route="west-east"/>
    <vehicle id="veh_96" type="truck" depart="192" route="north-south"/>
    <vehicle id="veh_97" type="car" depart="194" route="south-north"/>
    <vehicle id="veh_98" type="car" depart="196" route="east-west"/>
    <vehicle id="veh_99" type="car" depart="198" route="west-east"/>
</routes>
